@<TRIPOS>MOLECULE
LNR
   24    24     1     0     0
SMALL
resp


@<TRIPOS>ATOM
      1 C1          -1.4200     1.5660     0.1710 ca         1 LNR      -0.280576
      2 C2          -0.0750     1.2910    -0.0180 ca         1 LNR      -0.227973
      3 C3          -0.5870    -1.0410    -0.2520 ca         1 LNR      -0.294394
      4 C4           2.5670    -0.2380     0.9150 c3         1 LNR       0.025684
      5 C5          -2.3490     0.5450     0.1550 ca         1 LNR       0.410343
      6 C6          -1.9230    -0.7680    -0.0610 ca         1 LNR       0.199719
      7 C7           0.3520    -0.0090    -0.2290 ca         1 LNR      -0.035537
      8 C8           1.8190    -0.3200    -0.4140 c3         1 LNR       0.136010
      9 N1           4.0510    -0.3140     0.6340 nz         1 LNR      -0.169415
     10 O1          -3.6410     0.8270     0.3380 oh         1 LNR      -0.611224
     11 O2          -2.9060    -1.6980    -0.0640 oh         1 LNR      -0.624019
     12 O3           2.5040     0.5950    -1.2340 oh         1 LNR      -0.671143
     13 H1          -1.7650     2.5710     0.3280 ha         1 LNR       0.218991
     14 H2           0.6310     2.1030    -0.0140 ha         1 LNR       0.187873
     15 H3          -0.2790    -2.0580    -0.4290 ha         1 LNR       0.164070
     16 H4           2.3110    -1.0400     1.5900 hx         1 LNR       0.100549
     17 H5           2.3990     0.7150     1.3920 hx         1 LNR       0.100549
     18 H6           1.9260    -1.3240    -0.8170 h1         1 LNR       0.092528
     19 H7           4.6100    -0.1000     1.4470 hn         1 LNR       0.279530
     20 H8           4.3280    -1.2270     0.3020 hn         1 LNR       0.279530
     21 H9           4.2680     0.3520    -0.1000 hn         1 LNR       0.279530
     22 H10         -4.1690     0.0390     0.2850 ho         1 LNR       0.480897
     23 H11         -2.5940    -2.5580    -0.3100 ho         1 LNR       0.480262
     24 H12          2.0170     0.7650    -2.0320 ho         1 LNR       0.478216
@<TRIPOS>BOND
     1     1     2 ar  
     2     1     5 ar  
     3     1    13 1   
     4     2     7 ar  
     5     2    14 1   
     6     3     6 ar  
     7     3     7 ar  
     8     3    15 1   
     9     4     8 1   
    10     4     9 1   
    11     4    16 1   
    12     4    17 1   
    13     5     6 ar  
    14     5    10 1   
    15     6    11 1   
    16     7     8 1   
    17     8    12 1   
    18     8    18 1   
    19     9    19 1   
    20     9    20 1   
    21     9    21 1   
    22    10    22 1   
    23    11    23 1   
    24    12    24 1   
@<TRIPOS>SUBSTRUCTURE
     1 LNR         1 TEMP              0 ****  ****    0 ROOT
