@<TRIPOS>MOLECULE
LDP
   23    23     1     0     0
SMALL
resp


@<TRIPOS>ATOM
      1 C1           0.5630    -0.2830    -0.4260 ca         1 LDP      -0.017981
      2 C2          -0.2030     0.8810    -0.3530 ca         1 LDP      -0.294508
      3 C3          -1.5490     0.8210    -0.0780 ca         1 LDP       0.296282
      4 C4          -2.1550    -0.4240     0.1270 ca         1 LDP       0.278329
      5 C5          -1.4050    -1.5750     0.0530 ca         1 LDP      -0.292474
      6 C6          -0.0430    -1.5070    -0.2230 ca         1 LDP      -0.224888
      7 C7           2.0500    -0.1850    -0.6940 c3         1 LDP      -0.067709
      8 C8           2.7930     0.1380     0.5990 c3         1 LDP       0.034704
      9 N1           4.2870     0.2780     0.3350 nz         1 LDP      -0.278622
     10 O1          -2.2610     1.9540    -0.0140 oh         1 LDP      -0.591773
     11 O2          -3.4800    -0.3800     0.3870 oh         1 LDP      -0.625818
     12 H1           0.2300     1.8510    -0.5260 ha         1 LDP       0.204674
     13 H2          -1.8760    -2.5300     0.2050 ha         1 LDP       0.194205
     14 H3           0.5230    -2.4190    -0.2880 ha         1 LDP       0.180940
     15 H4           2.2470     0.5890    -1.4310 hc         1 LDP       0.073093
     16 H5           2.4170    -1.1220    -1.1020 hc         1 LDP       0.073093
     17 H6           2.6880    -0.6450     1.3340 hx         1 LDP       0.098392
     18 H7           2.4760     1.0760     1.0290 hx         1 LDP       0.098392
     19 H8           4.8000     0.4910     1.1800 hn         1 LDP       0.303122
     20 H9           4.6750    -0.5730    -0.0490 hn         1 LDP       0.303122
     21 H10          4.4750     1.0180    -0.3280 hn         1 LDP       0.303122
     22 H11         -3.1770     1.7610     0.1530 ho         1 LDP       0.477813
     23 H12         -3.8610    -1.2450     0.4620 ho         1 LDP       0.474489
@<TRIPOS>BOND
     1     1     2 ar  
     2     1     6 ar  
     3     1     7 1   
     4     2     3 ar  
     5     2    12 1   
     6     3     4 ar  
     7     3    10 1   
     8     4     5 ar  
     9     4    11 1   
    10     5     6 ar  
    11     5    13 1   
    12     6    14 1   
    13     7     8 1   
    14     7    15 1   
    15     7    16 1   
    16     8     9 1   
    17     8    17 1   
    18     8    18 1   
    19     9    19 1   
    20     9    20 1   
    21     9    21 1   
    22    10    22 1   
    23    11    23 1   
@<TRIPOS>SUBSTRUCTURE
     1 LDP         1 TEMP              0 ****  ****    0 ROOT
