@<TRIPOS>MOLECULE
Structure
23   23    1
SMALL
USER_CHARGES


@<TRIPOS>ATOM
      1 C1        106.9000  120.9320  121.8900 C.ar      1 LDP        -0.1150 
      2 C2        107.4000  122.1700  122.2560 C.ar      1 LDP        -0.1150 
      3 C3        106.5610  123.2160  122.5630 C.ar      1 LDP         0.1500 
      4 C4        105.1850  123.0340  122.4990 C.ar      1 LDP         0.1500 
      5 C5        104.6710  121.8120  122.1270 C.ar      1 LDP        -0.1150 
      6 C6        105.5330  120.7670  121.8270 C.ar      1 LDP        -0.1150 
      7 C7        107.8400  119.7970  121.5830 C.3       1 LDP        -0.0050 
      8 C8        109.0500  119.8030  122.4900 C.3       1 LDP         0.0600 
      9 N1        110.2870  119.7290  121.7250 N.4       1 LDP        -0.9000 
     10 O1        107.0620  124.4340  122.9340 O.3       1 LDP        -0.5850 
     11 O2        104.3880  124.0850  122.8150 O.3       1 LDP        -0.5850 
     12 H2        108.4672  122.3285  122.3046 H         1 LDP         0.0000 
     13 H5        103.6018  121.6706  122.0699 H         1 LDP         0.0000 
     14 H6        105.1169  119.8124  121.5404 H         1 LDP         0.0000 
     15 H71       108.1648  119.8659  120.5448 H         1 LDP         0.0000 
     16 H72       107.3116  118.8496  121.6897 H         1 LDP         0.0000 
     17 H81       108.9951  118.9559  123.1737 H         1 LDP         0.0000 
     18 H82       109.0487  120.7126  123.0906 H         1 LDP         0.0000 
     19 H11       111.0750  119.7349  122.3568 H         1 LDP         0.0000 
     20 H12       110.2974  118.8772  121.1824 H         1 LDP         0.0000 
     21 H13       110.3477  120.5236  121.1045 H         1 LDP         0.0000 
     22 HO1       106.3373  125.0387  123.1093 H         1 LDP         0.0000 
     23 HO2       103.4675  123.8260  122.7303 H         1 LDP         0.0000 
@<TRIPOS>BOND
     1    1    2 ar   
     2    1    6 ar   
     3    1    7 1    
     4    2    3 ar   
     5    2   12 1    
     6    3    4 ar   
     7    3   10 1    
     8    4    5 ar   
     9    4   11 1    
    10    5    6 ar   
    11    5   13 1    
    12    6   14 1    
    13    7    8 1    
    14    7   15 1    
    15    7   16 1    
    16    8    9 1    
    17    8   17 1    
    18    8   18 1    
    19    9   19 1    
    20    9   20 1    
    21    9   21 1    
    22   10   22 1    
    23   11   23 1    
@<TRIPOS>SUBSTRUCTURE
     1 LDP         1 GROUP             0 A     ****    0 ROOT    
