@<TRIPOS>MOLECULE
Structure
24   24    1
SMALL
USER_CHARGES


@<TRIPOS>ATOM
      1 CAE       103.0900  121.4590  120.0550 C.ar      1 LNR        -0.1150 
      2 CAF       103.8910  120.3270  120.0840 C.ar      1 LNR        -0.1150 
      3 CAG       105.8430  121.6900  120.1990 C.ar      1 LNR        -0.1150 
      4 CAH       107.1130  119.2000  119.0110 C.3       1 LNR         0.0600 
      5 CAI       103.6740  122.7060  120.0960 C.ar      1 LNR         0.1500 
      6 CAJ       105.0580  122.8260  120.1730 C.ar      1 LNR         0.1500 
      7 CAK       105.2660  120.4350  120.1550 C.ar      1 LNR        -0.1150 
      8 CAL       106.1470  119.2030  120.1920 C.3       1 LNR         0.3200 
      9 NAA       108.0260  118.0600  119.0660 N.4       1 LNR        -0.9000 
     10 OAB       102.9120  123.8300  120.0680 O.3       1 LNR        -0.5850 
     11 OAC       105.6170  124.0770  120.2170 O.3       1 LNR        -0.5850 
     12 OAD       105.3720  118.0280  120.1620 O.3       1 LNR        -0.6830 
     13 HAE       102.0160  121.3593  120.0006 H         1 LNR         0.0000 
     14 HAF       103.4407  119.3459  120.0510 H         1 LNR         0.0000 
     15 HAG       106.9180  121.7776  120.2542 H         1 LNR         0.0000 
     16 HAH1      107.6883  120.1258  119.0107 H         1 LNR         0.0000 
     17 HAH2      106.5474  119.1671  118.0798 H         1 LNR         0.0000 
     18 HAL       106.7256  119.2156  121.1157 H         1 LNR         0.0000 
     19 HAA1      108.6495  118.0888  118.2720 H         1 LNR         0.0000 
     20 HAA2      108.5655  118.1010  119.9188 H         1 LNR         0.0000 
     21 HAA3      107.4947  117.2013  119.0452 H         1 LNR         0.0000 
     22 HOAB      103.4799  124.6032  120.1038 H         1 LNR         0.0000 
     23 HOAC      104.9227  124.7394  120.1898 H         1 LNR         0.0000 
     24 HOAD      104.7629  118.0268  120.9041 H         1 LNR         0.0000 
@<TRIPOS>BOND
     1    1    2 ar   
     2    1    5 ar   
     3    1   13 1    
     4    2    7 ar   
     5    2   14 1    
     6    3    6 ar   
     7    3    7 ar   
     8    3   15 1    
     9    4    8 1    
    10    4    9 1    
    11    4   16 1    
    12    4   17 1    
    13    5    6 ar   
    14    5   10 1    
    15    6   11 1    
    16    7    8 1    
    17    8   12 1    
    18    8   18 1    
    19    9   19 1    
    20    9   20 1    
    21    9   21 1    
    22   10   22 1    
    23   11   23 1    
    24   12   24 1    
@<TRIPOS>SUBSTRUCTURE
     1 LNR         1 GROUP             0 A     ****    0 ROOT    
